/*--------------------------------*- C++ -*----------------------------------*\
| =========                 |                                                 |
| \\      /  F ield         | OpenFOAM: The Open Source CFD Toolbox           |
|  \\    /   O peration     | Version:  v2306                                 |
|   \\  /    A nd           | Website:  www.openfoam.com                      |
|    \\/     M anipulation  |                                                 |
\*---------------------------------------------------------------------------*/
FoamFile
{
    version     2.0;
    format      ascii;
    class       dictionary;
    object      topoSetDict;
}
// * * * * * * * * * * * * * * * * * * * * * * * * * * * * * * * * * * * * * //

actions
(
    {
        name    clippingCells0.txt;
        type    cellSet;
        action  new;
        source  boxToCell;
        sourceInfo
        {
            boxes
            (
                (1.934106 -0.097302 0.985508)(2.134106 0.102698 1.185508)
            );
        }
    }

    {
        name    clippingCells1.txt;
        type    cellSet;
        action  new;
        source  boxToCell;
        sourceInfo
        {
            boxes
            (
                (1.934106 -0.097302 1.304414)(2.134106 0.102698 1.504414)
            );
        }
    }

    {
        name    clippingCells2.txt;
        type    cellSet;
        action  new;
        source  boxToCell;
        sourceInfo
        {
            boxes
            (
                (1.934106 -0.097302 1.611055)(2.134106 0.102698 1.811055)
            );
        }
    }

    {
        name    clippingCells3.txt;
        type    cellSet;
        action  new;
        source  boxToCell;
        sourceInfo
        {
            boxes
            (
                (1.934106 -0.097302 1.929961)(2.134106 0.102698 2.129961)
            );
        }
    }

    {
        name    clippingCells4.txt;
        type    cellSet;
        action  new;
        source  boxToCell;
        sourceInfo
        {
            boxes
            (
                (1.934106 -0.097302 2.248867)(2.134106 0.102698 2.448867)
            );
        }
    }

    {
        name    clippingCells5.txt;
        type    cellSet;
        action  new;
        source  boxToCell;
        sourceInfo
        {
            boxes
            (
                (2.247046 -0.097302 0.985508)(2.447046 0.102698 1.185508)
            );
        }
    }

    {
        name    clippingCells6.txt;
        type    cellSet;
        action  new;
        source  boxToCell;
        sourceInfo
        {
            boxes
            (
                (2.247046 -0.097302 1.304414)(2.447046 0.102698 1.504414)
            );
        }
    }

    {
        name    clippingCells7.txt;
        type    cellSet;
        action  new;
        source  boxToCell;
        sourceInfo
        {
            boxes
            (
                (2.247046 -0.097302 1.611055)(2.447046 0.102698 1.811055)
            );
        }
    }

    {
        name    clippingCells8.txt;
        type    cellSet;
        action  new;
        source  boxToCell;
        sourceInfo
        {
            boxes
            (
                (2.247046 -0.097302 1.929961)(2.447046 0.102698 2.129961)
            );
        }
    }

    {
        name    clippingCells9.txt;
        type    cellSet;
        action  new;
        source  boxToCell;
        sourceInfo
        {
            boxes
            (
                (2.247046 -0.097302 2.248867)(2.447046 0.102698 2.448867)
            );
        }
    }

    {
        name    clippingCells10.txt;
        type    cellSet;
        action  new;
        source  boxToCell;
        sourceInfo
        {
            boxes
            (
                (2.559985 -0.097302 0.985508)(2.759985 0.102698 1.185508)
            );
        }
    }

    {
        name    clippingCells11.txt;
        type    cellSet;
        action  new;
        source  boxToCell;
        sourceInfo
        {
            boxes
            (
                (2.559985 -0.097302 1.304414)(2.759985 0.102698 1.504414)
            );
        }
    }

    {
        name    clippingCells12.txt;
        type    cellSet;
        action  new;
        source  boxToCell;
        sourceInfo
        {
            boxes
            (
                (2.559985 -0.097302 1.611055)(2.759985 0.102698 1.811055)
            );
        }
    }

    {
        name    clippingCells13.txt;
        type    cellSet;
        action  new;
        source  boxToCell;
        sourceInfo
        {
            boxes
            (
                (2.559985 -0.097302 1.929961)(2.759985 0.102698 2.129961)
            );
        }
    }

    {
        name    clippingCells14.txt;
        type    cellSet;
        action  new;
        source  boxToCell;
        sourceInfo
        {
            boxes
            (
                (2.559985 -0.097302 2.248867)(2.759985 0.102698 2.448867)
            );
        }
    }

    {
        name    clippingCells15.txt;
        type    cellSet;
        action  new;
        source  boxToCell;
        sourceInfo
        {
            boxes
            (
                (2.872925 -0.097302 0.985508)(3.072925 0.102698 1.185508)
            );
        }
    }

    {
        name    clippingCells16.txt;
        type    cellSet;
        action  new;
        source  boxToCell;
        sourceInfo
        {
            boxes
            (
                (2.872925 -0.097302 1.304414)(3.072925 0.102698 1.504414)
            );
        }
    }

    {
        name    clippingCells17.txt;
        type    cellSet;
        action  new;
        source  boxToCell;
        sourceInfo
        {
            boxes
            (
                (2.872925 -0.097302 1.611055)(3.072925 0.102698 1.811055)
            );
        }
    }

    {
        name    clippingCells18.txt;
        type    cellSet;
        action  new;
        source  boxToCell;
        sourceInfo
        {
            boxes
            (
                (2.872925 -0.097302 1.929961)(3.072925 0.102698 2.129961)
            );
        }
    }

    {
        name    clippingCells19.txt;
        type    cellSet;
        action  new;
        source  boxToCell;
        sourceInfo
        {
            boxes
            (
                (2.872925 -0.097302 2.248867)(3.072925 0.102698 2.448867)
            );
        }
    }

    {
        name    clippingCells20.txt;
        type    cellSet;
        action  new;
        source  boxToCell;
        sourceInfo
        {
            boxes
            (
                (3.185864 -0.097302 0.985508)(3.385864 0.102698 1.185508)
            );
        }
    }

    {
        name    clippingCells21.txt;
        type    cellSet;
        action  new;
        source  boxToCell;
        sourceInfo
        {
            boxes
            (
                (3.185864 -0.097302 1.304414)(3.385864 0.102698 1.504414)
            );
        }
    }

    {
        name    clippingCells22.txt;
        type    cellSet;
        action  new;
        source  boxToCell;
        sourceInfo
        {
            boxes
            (
                (3.185864 -0.097302 1.611055)(3.385864 0.102698 1.811055)
            );
        }
    }

    {
        name    clippingCells23.txt;
        type    cellSet;
        action  new;
        source  boxToCell;
        sourceInfo
        {
            boxes
            (
                (3.185864 -0.097302 1.929961)(3.385864 0.102698 2.129961)
            );
        }
    }

    {
        name    clippingCells24.txt;
        type    cellSet;
        action  new;
        source  boxToCell;
        sourceInfo
        {
            boxes
            (
                (3.185864 -0.097302 2.248867)(3.385864 0.102698 2.448867)
            );
        }
    }

    {
        name    clippingCells25.txt;
        type    cellSet;
        action  new;
        source  boxToCell;
        sourceInfo
        {
            boxes
            (
                (3.498804 -0.097302 0.985508)(3.698804 0.102698 1.185508)
            );
        }
    }

    {
        name    clippingCells26.txt;
        type    cellSet;
        action  new;
        source  boxToCell;
        sourceInfo
        {
            boxes
            (
                (3.498804 -0.097302 1.304414)(3.698804 0.102698 1.504414)
            );
        }
    }

    {
        name    clippingCells27.txt;
        type    cellSet;
        action  new;
        source  boxToCell;
        sourceInfo
        {
            boxes
            (
                (3.498804 -0.097302 1.611055)(3.698804 0.102698 1.811055)
            );
        }
    }

    {
        name    clippingCells28.txt;
        type    cellSet;
        action  new;
        source  boxToCell;
        sourceInfo
        {
            boxes
            (
                (3.498804 -0.097302 1.929961)(3.698804 0.102698 2.129961)
            );
        }
    }

    {
        name    clippingCells29.txt;
        type    cellSet;
        action  new;
        source  boxToCell;
        sourceInfo
        {
            boxes
            (
                (3.498804 -0.097302 2.248867)(3.698804 0.102698 2.448867)
            );
        }
    }

    {
        name    clippingCells30.txt;
        type    cellSet;
        action  new;
        source  boxToCell;
        sourceInfo
        {
            boxes
            (
                (3.811743 -0.097302 0.985508)(4.011743 0.102698 1.185508)
            );
        }
    }

    {
        name    clippingCells31.txt;
        type    cellSet;
        action  new;
        source  boxToCell;
        sourceInfo
        {
            boxes
            (
                (3.811743 -0.097302 1.304414)(4.011743 0.102698 1.504414)
            );
        }
    }

    {
        name    clippingCells32.txt;
        type    cellSet;
        action  new;
        source  boxToCell;
        sourceInfo
        {
            boxes
            (
                (3.811743 -0.097302 1.611055)(4.011743 0.102698 1.811055)
            );
        }
    }

    {
        name    clippingCells33.txt;
        type    cellSet;
        action  new;
        source  boxToCell;
        sourceInfo
        {
            boxes
            (
                (3.811743 -0.097302 1.929961)(4.011743 0.102698 2.129961)
            );
        }
    }

    {
        name    clippingCells34.txt;
        type    cellSet;
        action  new;
        source  boxToCell;
        sourceInfo
        {
            boxes
            (
                (3.811743 -0.097302 2.248867)(4.011743 0.102698 2.448867)
            );
        }
    }

    {
        name    clippingCells35.txt;
        type    cellSet;
        action  new;
        source  boxToCell;
        sourceInfo
        {
            boxes
            (
                (4.124683 -0.097302 0.985508)(4.324683 0.102698 1.185508)
            );
        }
    }

    {
        name    clippingCells36.txt;
        type    cellSet;
        action  new;
        source  boxToCell;
        sourceInfo
        {
            boxes
            (
                (4.124683 -0.097302 1.304414)(4.324683 0.102698 1.504414)
            );
        }
    }

    {
        name    clippingCells37.txt;
        type    cellSet;
        action  new;
        source  boxToCell;
        sourceInfo
        {
            boxes
            (
                (4.124683 -0.097302 1.611055)(4.324683 0.102698 1.811055)
            );
        }
    }

    {
        name    clippingCells38.txt;
        type    cellSet;
        action  new;
        source  boxToCell;
        sourceInfo
        {
            boxes
            (
                (4.124683 -0.097302 1.929961)(4.324683 0.102698 2.129961)
            );
        }
    }

    {
        name    clippingCells39.txt;
        type    cellSet;
        action  new;
        source  boxToCell;
        sourceInfo
        {
            boxes
            (
                (4.124683 -0.097302 2.248867)(4.324683 0.102698 2.448867)
            );
        }
    }

    {
        name    clippingCells40.txt;
        type    cellSet;
        action  new;
        source  boxToCell;
        sourceInfo
        {
            boxes
            (
                (4.437622 -0.097302 0.985508)(4.637622 0.102698 1.185508)
            );
        }
    }

    {
        name    clippingCells41.txt;
        type    cellSet;
        action  new;
        source  boxToCell;
        sourceInfo
        {
            boxes
            (
                (4.437622 -0.097302 1.304414)(4.637622 0.102698 1.504414)
            );
        }
    }

    {
        name    clippingCells42.txt;
        type    cellSet;
        action  new;
        source  boxToCell;
        sourceInfo
        {
            boxes
            (
                (4.437622 -0.097302 1.611055)(4.637622 0.102698 1.811055)
            );
        }
    }

    {
        name    clippingCells43.txt;
        type    cellSet;
        action  new;
        source  boxToCell;
        sourceInfo
        {
            boxes
            (
                (4.437622 -0.097302 1.929961)(4.637622 0.102698 2.129961)
            );
        }
    }

    {
        name    clippingCells44.txt;
        type    cellSet;
        action  new;
        source  boxToCell;
        sourceInfo
        {
            boxes
            (
                (4.437622 -0.097302 2.248867)(4.637622 0.102698 2.448867)
            );
        }
    }

    {
        name    clippingCells45.txt;
        type    cellSet;
        action  new;
        source  boxToCell;
        sourceInfo
        {
            boxes
            (
                (4.750562 -0.097302 0.985508)(4.950562 0.102698 1.185508)
            );
        }
    }

    {
        name    clippingCells46.txt;
        type    cellSet;
        action  new;
        source  boxToCell;
        sourceInfo
        {
            boxes
            (
                (4.750562 -0.097302 1.304414)(4.950562 0.102698 1.504414)
            );
        }
    }

    {
        name    clippingCells47.txt;
        type    cellSet;
        action  new;
        source  boxToCell;
        sourceInfo
        {
            boxes
            (
                (4.750562 -0.097302 1.611055)(4.950562 0.102698 1.811055)
            );
        }
    }

    {
        name    clippingCells48.txt;
        type    cellSet;
        action  new;
        source  boxToCell;
        sourceInfo
        {
            boxes
            (
                (4.750562 -0.097302 1.929961)(4.950562 0.102698 2.129961)
            );
        }
    }

    {
        name    clippingCells49.txt;
        type    cellSet;
        action  new;
        source  boxToCell;
        sourceInfo
        {
            boxes
            (
                (4.750562 -0.097302 2.248867)(4.950562 0.102698 2.448867)
            );
        }
    }

    {
        name    clippingCells50.txt;
        type    cellSet;
        action  new;
        source  boxToCell;
        sourceInfo
        {
            boxes
            (
                (5.081909 -0.097302 0.985508)(5.281909 0.102698 1.185508)
            );
        }
    }

    {
        name    clippingCells51.txt;
        type    cellSet;
        action  new;
        source  boxToCell;
        sourceInfo
        {
            boxes
            (
                (5.081909 -0.097302 1.304414)(5.281909 0.102698 1.504414)
            );
        }
    }

    {
        name    clippingCells52.txt;
        type    cellSet;
        action  new;
        source  boxToCell;
        sourceInfo
        {
            boxes
            (
                (5.081909 -0.097302 1.611055)(5.281909 0.102698 1.811055)
            );
        }
    }

    {
        name    clippingCells53.txt;
        type    cellSet;
        action  new;
        source  boxToCell;
        sourceInfo
        {
            boxes
            (
                (5.081909 -0.097302 1.929961)(5.281909 0.102698 2.129961)
            );
        }
    }

    {
        name    clippingCells54.txt;
        type    cellSet;
        action  new;
        source  boxToCell;
        sourceInfo
        {
            boxes
            (
                (5.081909 -0.097302 2.248867)(5.281909 0.102698 2.448867)
            );
        }
    }

    {
        name    clippingCells55.txt;
        type    cellSet;
        action  new;
        source  boxToCell;
        sourceInfo
        {
            boxes
            (
                (5.394849 -0.097302 0.985508)(5.594849 0.102698 1.185508)
            );
        }
    }

    {
        name    clippingCells56.txt;
        type    cellSet;
        action  new;
        source  boxToCell;
        sourceInfo
        {
            boxes
            (
                (5.394849 -0.097302 1.304414)(5.594849 0.102698 1.504414)
            );
        }
    }

    {
        name    clippingCells57.txt;
        type    cellSet;
        action  new;
        source  boxToCell;
        sourceInfo
        {
            boxes
            (
                (5.394849 -0.097302 1.611055)(5.594849 0.102698 1.811055)
            );
        }
    }

    {
        name    clippingCells58.txt;
        type    cellSet;
        action  new;
        source  boxToCell;
        sourceInfo
        {
            boxes
            (
                (5.394849 -0.097302 1.929961)(5.594849 0.102698 2.129961)
            );
        }
    }

    {
        name    clippingCells59.txt;
        type    cellSet;
        action  new;
        source  boxToCell;
        sourceInfo
        {
            boxes
            (
                (5.394849 -0.097302 2.248867)(5.594849 0.102698 2.448867)
            );
        }
    }

    {
        name    clippingCells60.txt;
        type    cellSet;
        action  new;
        source  boxToCell;
        sourceInfo
        {
            boxes
            (
                (5.707788 -0.097302 0.985508)(5.907788 0.102698 1.185508)
            );
        }
    }

    {
        name    clippingCells61.txt;
        type    cellSet;
        action  new;
        source  boxToCell;
        sourceInfo
        {
            boxes
            (
                (5.707788 -0.097302 1.304414)(5.907788 0.102698 1.504414)
            );
        }
    }

    {
        name    clippingCells62.txt;
        type    cellSet;
        action  new;
        source  boxToCell;
        sourceInfo
        {
            boxes
            (
                (5.707788 -0.097302 1.611055)(5.907788 0.102698 1.811055)
            );
        }
    }

    {
        name    clippingCells63.txt;
        type    cellSet;
        action  new;
        source  boxToCell;
        sourceInfo
        {
            boxes
            (
                (5.707788 -0.097302 1.929961)(5.907788 0.102698 2.129961)
            );
        }
    }

    {
        name    clippingCells64.txt;
        type    cellSet;
        action  new;
        source  boxToCell;
        sourceInfo
        {
            boxes
            (
                (5.707788 -0.097302 2.248867)(5.907788 0.102698 2.448867)
            );
        }
    }

    {
        name    clippingCells65.txt;
        type    cellSet;
        action  new;
        source  boxToCell;
        sourceInfo
        {
            boxes
            (
                (6.020728 -0.097302 0.985508)(6.220727 0.102698 1.185508)
            );
        }
    }

    {
        name    clippingCells66.txt;
        type    cellSet;
        action  new;
        source  boxToCell;
        sourceInfo
        {
            boxes
            (
                (6.020728 -0.097302 1.304414)(6.220727 0.102698 1.504414)
            );
        }
    }

    {
        name    clippingCells67.txt;
        type    cellSet;
        action  new;
        source  boxToCell;
        sourceInfo
        {
            boxes
            (
                (6.020728 -0.097302 1.611055)(6.220727 0.102698 1.811055)
            );
        }
    }

    {
        name    clippingCells68.txt;
        type    cellSet;
        action  new;
        source  boxToCell;
        sourceInfo
        {
            boxes
            (
                (6.020728 -0.097302 1.929961)(6.220727 0.102698 2.129961)
            );
        }
    }

    {
        name    clippingCells69.txt;
        type    cellSet;
        action  new;
        source  boxToCell;
        sourceInfo
        {
            boxes
            (
                (6.020728 -0.097302 2.248867)(6.220727 0.102698 2.448867)
            );
        }
    }

    {
        name    clippingCells70.txt;
        type    cellSet;
        action  new;
        source  boxToCell;
        sourceInfo
        {
            boxes
            (
                (6.333667 -0.097302 0.985508)(6.533667 0.102698 1.185508)
            );
        }
    }

    {
        name    clippingCells71.txt;
        type    cellSet;
        action  new;
        source  boxToCell;
        sourceInfo
        {
            boxes
            (
                (6.333667 -0.097302 1.304414)(6.533667 0.102698 1.504414)
            );
        }
    }

    {
        name    clippingCells72.txt;
        type    cellSet;
        action  new;
        source  boxToCell;
        sourceInfo
        {
            boxes
            (
                (6.333667 -0.097302 1.611055)(6.533667 0.102698 1.811055)
            );
        }
    }

    {
        name    clippingCells73.txt;
        type    cellSet;
        action  new;
        source  boxToCell;
        sourceInfo
        {
            boxes
            (
                (6.333667 -0.097302 1.929961)(6.533667 0.102698 2.129961)
            );
        }
    }

    {
        name    clippingCells74.txt;
        type    cellSet;
        action  new;
        source  boxToCell;
        sourceInfo
        {
            boxes
            (
                (6.333667 -0.097302 2.248867)(6.533667 0.102698 2.448867)
            );
        }
    }

    {
        name    clippingCells75.txt;
        type    cellSet;
        action  new;
        source  boxToCell;
        sourceInfo
        {
            boxes
            (
                (6.646606 -0.097302 0.985508)(6.846606 0.102698 1.185508)
            );
        }
    }

    {
        name    clippingCells76.txt;
        type    cellSet;
        action  new;
        source  boxToCell;
        sourceInfo
        {
            boxes
            (
                (6.646606 -0.097302 1.304414)(6.846606 0.102698 1.504414)
            );
        }
    }

    {
        name    clippingCells77.txt;
        type    cellSet;
        action  new;
        source  boxToCell;
        sourceInfo
        {
            boxes
            (
                (6.646606 -0.097302 1.611055)(6.846606 0.102698 1.811055)
            );
        }
    }

    {
        name    clippingCells78.txt;
        type    cellSet;
        action  new;
        source  boxToCell;
        sourceInfo
        {
            boxes
            (
                (6.646606 -0.097302 1.929961)(6.846606 0.102698 2.129961)
            );
        }
    }

    {
        name    clippingCells79.txt;
        type    cellSet;
        action  new;
        source  boxToCell;
        sourceInfo
        {
            boxes
            (
                (6.646606 -0.097302 2.248867)(6.846606 0.102698 2.448867)
            );
        }
    }

    {
        name    clippingCells80.txt;
        type    cellSet;
        action  new;
        source  boxToCell;
        sourceInfo
        {
            boxes
            (
                (6.959546 -0.097302 0.985508)(7.159546 0.102698 1.185508)
            );
        }
    }

    {
        name    clippingCells81.txt;
        type    cellSet;
        action  new;
        source  boxToCell;
        sourceInfo
        {
            boxes
            (
                (6.959546 -0.097302 1.304414)(7.159546 0.102698 1.504414)
            );
        }
    }

    {
        name    clippingCells82.txt;
        type    cellSet;
        action  new;
        source  boxToCell;
        sourceInfo
        {
            boxes
            (
                (6.959546 -0.097302 1.611055)(7.159546 0.102698 1.811055)
            );
        }
    }

    {
        name    clippingCells83.txt;
        type    cellSet;
        action  new;
        source  boxToCell;
        sourceInfo
        {
            boxes
            (
                (6.959546 -0.097302 1.929961)(7.159546 0.102698 2.129961)
            );
        }
    }

    {
        name    clippingCells84.txt;
        type    cellSet;
        action  new;
        source  boxToCell;
        sourceInfo
        {
            boxes
            (
                (6.959546 -0.097302 2.248867)(7.159546 0.102698 2.448867)
            );
        }
    }

    {
        name    clippingCells85.txt;
        type    cellSet;
        action  new;
        source  boxToCell;
        sourceInfo
        {
            boxes
            (
                (7.272485 -0.097302 0.985508)(7.472485 0.102698 1.185508)
            );
        }
    }

    {
        name    clippingCells86.txt;
        type    cellSet;
        action  new;
        source  boxToCell;
        sourceInfo
        {
            boxes
            (
                (7.272485 -0.097302 1.304414)(7.472485 0.102698 1.504414)
            );
        }
    }

    {
        name    clippingCells87.txt;
        type    cellSet;
        action  new;
        source  boxToCell;
        sourceInfo
        {
            boxes
            (
                (7.272485 -0.097302 1.611055)(7.472485 0.102698 1.811055)
            );
        }
    }

    {
        name    clippingCells88.txt;
        type    cellSet;
        action  new;
        source  boxToCell;
        sourceInfo
        {
            boxes
            (
                (7.272485 -0.097302 1.929961)(7.472485 0.102698 2.129961)
            );
        }
    }

    {
        name    clippingCells89.txt;
        type    cellSet;
        action  new;
        source  boxToCell;
        sourceInfo
        {
            boxes
            (
                (7.272485 -0.097302 2.248867)(7.472485 0.102698 2.448867)
            );
        }
    }

    {
        name    clippingCells90.txt;
        type    cellSet;
        action  new;
        source  boxToCell;
        sourceInfo
        {
            boxes
            (
                (1.786841 -0.006065 1.696914)(1.986841 0.193935 1.896914)
            );
        }
    }

    {
        name    clippingCells91.txt;
        type    cellSet;
        action  new;
        source  boxToCell;
        sourceInfo
        {
            boxes
            (
                (4.345581 -0.038702 1.635586)(4.545581 0.161298 1.835586)
            );
        }
    }

    {
        name    clippingCells92.txt;
        type    cellSet;
        action  new;
        source  boxToCell;
        sourceInfo
        {
            boxes
            (
                (3.664477 -0.089725 0.997773)(3.864478 0.110275 1.197773)
            );
        }
    }

    {
        name    clippingCells93.txt;
        type    cellSet;
        action  new;
        source  boxToCell;
        sourceInfo
        {
            boxes
            (
                (4.548071 -0.047322 1.929961)(4.748071 0.152678 2.129961)
            );
        }
    }

    {
        name    clippingCells94.txt;
        type    cellSet;
        action  new;
        source  boxToCell;
        sourceInfo
        {
            boxes
            (
                (4.271948 -0.065589 2.175273)(4.471948 0.134411 2.375273)
            );
        }
    }

    {
        name    clippingCells95.txt;
        type    cellSet;
        action  new;
        source  boxToCell;
        sourceInfo
        {
            boxes
            (
                (2.523169 -0.032671 1.059102)(2.723169 0.167329 1.259102)
            );
        }
    }

    {
        name    clippingCells96.txt;
        type    cellSet;
        action  new;
        source  boxToCell;
        sourceInfo
        {
            boxes
            (
                (2.504761 -0.050086 0.862852)(2.704761 0.149914 1.062852)
            );
        }
    }

    {
        name    clippingCells97.txt;
        type    cellSet;
        action  new;
        source  boxToCell;
        sourceInfo
        {
            boxes
            (
                (5.965503 -0.091675 0.911914)(6.165503 0.108325 1.111914)
            );
        }
    }

    {
        name    clippingCells98.txt;
        type    cellSet;
        action  new;
        source  boxToCell;
        sourceInfo
        {
            boxes
            (
                (5.523706 -0.050086 2.150742)(5.723706 0.149914 2.350742)
            );
        }
    }

    {
        name    clippingCells99.txt;
        type    cellSet;
        action  new;
        source  boxToCell;
        sourceInfo
        {
            boxes
            (
                (6.683423 -0.038702 0.727930)(6.883423 0.161298 0.927930)
            );
        }
    }

    {
        name    clippingCells100.txt;
        type    cellSet;
        action  new;
        source  boxToCell;
        sourceInfo
        {
            boxes
            (
                (4.824194 -0.026401 1.365742)(5.024194 0.173599 1.565742)
            );
        }
    }

    {
        name    clippingCells101.txt;
        type    cellSet;
        action  new;
        source  boxToCell;
        sourceInfo
        {
            boxes
            (
                (4.051050 -0.009620 1.328945)(4.251050 0.190380 1.528945)
            );
        }
    }

    {
        name    clippingCells102.txt;
        type    cellSet;
        action  new;
        source  boxToCell;
        sourceInfo
        {
            boxes
            (
                (2.964966 -0.083645 1.549727)(3.164966 0.116356 1.749727)
            );
        }
    }

    {
        name    clippingCells103.txt;
        type    cellSet;
        action  new;