/*--------------------------------*- C++ -*----------------------------------*\
| =========                 |                                                 |
| \\      /  F ield         | OpenFOAM: The Open Source CFD Toolbox           |
|  \\    /   O peration     | Version:  2212                                  |
|   \\  /    A nd           | Website:  www.openfoam.com                      |
|    \\/     M anipulation  |                                                 |
\*---------------------------------------------------------------------------*/
FoamFile
{
    version     2.0;
    format      ascii;
    arch        "LSB;label=32;scalar=64";
    class       polyBoundaryMesh;
    location    "constant/polyMesh";
    object      boundary;
}
// * * * * * * * * * * * * * * * * * * * * * * * * * * * * * * * * * * * * * //

6
(
    movingWall
    {
        type            wall;
        inGroups        1(wall);
        nFaces          7;
        startFace       78;
    }
    fixedWalls
    {
        type            wall;
        inGroups        1(wall);
        nFaces          6;
        startFace       85;
    }
    frontAndBack
    {
        type            empty;
        inGroups        1(empty);
        nFaces          92;
        startFace       91;
    }
    procBoundary8to4
    {
        type            processor;
        inGroups        1(processor);
        nFaces          1;
        startFace       183;
        matchTolerance  0.0001;
        transform       unknown;
        myProcNo        8;
        neighbProcNo    4;
    }
    procBoundary8to5
    {
        type            processor;
        inGroups        1(processor);
        nFaces          8;
        startFace       184;
        matchTolerance  0.0001;
        transform       unknown;
        myProcNo        8;
        neighbProcNo    5;
    }
    procBoundary8to7
    {
        type            processor;
        inGroups        1(processor);
        nFaces          6;
        startFace       192;
        matchTolerance  0.0001;
        transform       unknown;
        myProcNo        8;
        neighbProcNo    7;
    }
)

// ************************************************************************* //
