/*--------------------------------*- C++ -*----------------------------------*\
| =========                 |                                                 |
| \\      /  F ield         | OpenFOAM: The Open Source CFD Toolbox           |
|  \\    /   O peration     | Version:  2212                                  |
|   \\  /    A nd           | Website:  www.openfoam.com                      |
|    \\/     M anipulation  |                                                 |
\*---------------------------------------------------------------------------*/
FoamFile
{
    version     2.0;
    format      ascii;
    arch        "LSB;label=32;scalar=64";
    class       polyBoundaryMesh;
    location    "constant/polyMesh";
    object      boundary;
}
// * * * * * * * * * * * * * * * * * * * * * * * * * * * * * * * * * * * * * //

9
(
    movingWall
    {
        type            wall;
        inGroups        1(wall);
        nFaces          0;
        startFace       74;
    }
    fixedWalls
    {
        type            wall;
        inGroups        1(wall);
        nFaces          0;
        startFace       74;
    }
    frontAndBack
    {
        type            empty;
        inGroups        1(empty);
        nFaces          88;
        startFace       74;
    }
    procBoundary4to0
    {
        type            processor;
        inGroups        1(processor);
        nFaces          1;
        startFace       162;
        matchTolerance  0.0001;
        transform       unknown;
        myProcNo        4;
        neighbProcNo    0;
    }
    procBoundary4to1
    {
        type            processor;
        inGroups        1(processor);
        nFaces          7;
        startFace       163;
        matchTolerance  0.0001;
        transform       unknown;
        myProcNo        4;
        neighbProcNo    1;
    }
    procBoundary4to3
    {
        type            processor;
        inGroups        1(processor);
        nFaces          6;
        startFace       170;
        matchTolerance  0.0001;
        transform       unknown;
        myProcNo        4;
        neighbProcNo    3;
    }
    procBoundary4to5
    {
        type            processor;
        inGroups        1(processor);
        nFaces          6;
        startFace       176;
        matchTolerance  0.0001;
        transform       unknown;
        myProcNo        4;
        neighbProcNo    5;
    }
    procBoundary4to7
    {
        type            processor;
        inGroups        1(processor);
        nFaces          7;
        startFace       182;
        matchTolerance  0.0001;
        transform       unknown;
        myProcNo        4;
        neighbProcNo    7;
    }
    procBoundary4to8
    {
        type            processor;
        inGroups        1(processor);
        nFaces          1;
        startFace       189;
        matchTolerance  0.0001;
        transform       unknown;
        myProcNo        4;
        neighbProcNo    8;
    }
)

// ************************************************************************* //
