/*--------------------------------*- C++ -*----------------------------------*\
  =========                 |
  \\      /  F ield         | OpenFOAM: The Open Source CFD Toolbox
   \\    /   O peration     | Website:  https://openfoam.org
    \\  /    A nd           | Version:  8
     \\/     M anipulation  |
\*---------------------------------------------------------------------------*/
FoamFile
{
    version     2.0;
    format      ascii;
    class       dictionary;
    location    "constant";
    object      momentumTransport;
}

// * * * * * * * * * * * * * * * * * * * * * * * * * * * * * * * * * * * * * //

simulationType      LES;

LES
{
    LESModel        DASmagorinsky;
    SmagorinskyCoeffs
    {
        Ce              1.048;
//        Ck              0.094;
    }
    
    delta           cubeRootVol;
    
    cubeRootVolCoeffs
    {
        deltaCoeff      1;
    }

    printCoeffs     on;
    turbulence      on;
}


// ************************************************************************* //

