/*--------------------------------*- C++ -*----------------------------------*\
| =========                 |                                                 |
| \\      /  F ield         | OpenFOAM: The Open Source CFD Toolbox           |
|  \\    /   O peration     | Version:  2212                                  |
|   \\  /    A nd           | Website:  www.openfoam.com                      |
|    \\/     M anipulation  |                                                 |
\*---------------------------------------------------------------------------*/
FoamFile
{
    version     2.0;
    format      ascii;
    arch        "LSB;label=32;scalar=64";
    class       polyBoundaryMesh;
    location    "constant/polyMesh";
    object      boundary;
}
// * * * * * * * * * * * * * * * * * * * * * * * * * * * * * * * * * * * * * //

7
(
    movingWall
    {
        type            wall;
        inGroups        1(wall);
        nFaces          0;
        startFace       74;
    }
    fixedWalls
    {
        type            wall;
        inGroups        1(wall);
        nFaces          6;
        startFace       74;
    }
    frontAndBack
    {
        type            empty;
        inGroups        1(empty);
        nFaces          88;
        startFace       80;
    }
    procBoundary3to0
    {
        type            processor;
        inGroups        1(processor);
        nFaces          8;
        startFace       168;
        matchTolerance  0.0001;
        transform       unknown;
        myProcNo        3;
        neighbProcNo    0;
    }
    procBoundary3to4
    {
        type            processor;
        inGroups        1(processor);
        nFaces          6;
        startFace       176;
        matchTolerance  0.0001;
        transform       unknown;
        myProcNo        3;
        neighbProcNo    4;
    }
    procBoundary3to6
    {
        type            processor;
        inGroups        1(processor);
        nFaces          7;
        startFace       182;
        matchTolerance  0.0001;
        transform       unknown;
        myProcNo        3;
        neighbProcNo    6;
    }
    procBoundary3to7
    {
        type            processor;
        inGroups        1(processor);
        nFaces          1;
        startFace       189;
        matchTolerance  0.0001;
        transform       unknown;
        myProcNo        3;
        neighbProcNo    7;
    }
)

// ************************************************************************* //
