/*--------------------------------*- C++ -*----------------------------------*\
| =========                 |                                                 |
| \\      /  F ield         | OpenFOAM: The Open Source CFD Toolbox           |
|  \\    /   O peration     | Version:  2212                                  |
|   \\  /    A nd           | Website:  www.openfoam.com                      |
|    \\/     M anipulation  |                                                 |
\*---------------------------------------------------------------------------*/
FoamFile
{
    version     2.0;
    format      ascii;
    arch        "LSB;label=32;scalar=64";
    class       dictionary;
    location    "system";
    object      ensembleDict;
}
// * * * * * * * * * * * * * * * * * * * * * * * * * * * * * * * * * * * * * //

Ensembles       8 ( ( 0.997034 0 0 ) ( 0.91347 0 0 ) ( 0.878309 0 0 ) ( 0.866485 0 0 ) ( 0.842828 0 0 ) ( 0.924853 0 0 ) ( 0.95032 0 0 ) ( 0.949556 0 0 ) );


// ************************************************************************* //
