/*--------------------------------*- C++ -*----------------------------------*\
  =========                 |
  \\      /  F ield         | OpenFOAM: The Open Source CFD Toolbox
   \\    /   O peration     | Website:  https://openfoam.org
    \\  /    A nd           | Version:  8
     \\/     M anipulation  |
\*---------------------------------------------------------------------------*/
FoamFile
{
    version     2.0;
    format      ascii;
    class       dictionary;
    location    "system";
    object      controlDict;
}
// * * * * * * * * * * * * * * * * * * * * * * * * * * * * * * * * * * * * * //

<<<<<<< HEAD:pitzDaily_test/system/controlDict
application     cwipiSimpleFoamkEps;
//application   cwipiSimpleFoamkOmegaSST;
=======
libs ("libDASmagorinsky.so")

application     cwipiPimpleFoamPar;
>>>>>>> cd649f5848680d386c9142cb4106913f938f1f0c:tests/channel_test/system/controlDict

startFrom       startTime;

startTime       0;

stopAt          endTime;

<<<<<<< HEAD:pitzDaily_test/system/controlDict
endTime         2000;

deltaT          1;
=======
endTime         10.08;

deltaT          0.02;
>>>>>>> cd649f5848680d386c9142cb4106913f938f1f0c:tests/channel_test/system/controlDict

writeControl    runTime;

<<<<<<< HEAD:pitzDaily_test/system/controlDict
writeInterval   25;

purgeWrite      0;
=======
writeInterval   0.12;

purgeWrite      3;
>>>>>>> cd649f5848680d386c9142cb4106913f938f1f0c:tests/channel_test/system/controlDict

writeFormat     ascii;

writePrecision  6;

writeCompression off;

timeFormat      general;

timePrecision   6;

runTimeModifiable true;

cwipiSwitch   true;

cacheTemporaryObjects
(
    kEpsilon:G
);

// functions
// {
//    #includeFunc streamlines
//    #includeFunc writeObjects(kEpsilon:G)
// }

RSTSwitch    true;

functions
{
    // #include "fieldAverage"
    // #include "userFieldAverage"
    // #include "forceCoeffs"
}

// ************************************************************************* //
