/*--------------------------------*- C++ -*----------------------------------*\
| =========                 |                                                 |
| \\      /  F ield         | OpenFOAM: The Open Source CFD Toolbox           |
|  \\    /   O peration     | Version:  2.4.0                                 |
|   \\  /    A nd           | Web:      www.OpenFOAM.org                      |
|    \\/     M anipulation  |                                                 |
\*---------------------------------------------------------------------------*/
FoamFile
{
    version     2.0;
    format      ascii;
    class       dictionary;
    note        "mesh decomposition control dictionary";
    object      decomposeParDict;
}
// * * * * * * * * * * * * * * * * * * * * * * * * * * * * * * * * * * * * * //

numberOfSubdomains  10;

method          simple;
//method		   hierarchical;
<<<<<<< HEAD:pitzDaily_test/system/decomposeParDict
=======
// method scotch;
>>>>>>> cd649f5848680d386c9142cb4106913f938f1f0c:tests/pitzDaily_test/system/decomposeParDict

simpleCoeffs
{
    n           (5 2 1);
    delta       0.001;
}

/*hierarchicalCoeffs
{
    n		(4 2 1);
    delta	0.001;
    order	xyz;
}*/
// ************************************************************************* //
