/*--------------------------------*- C++ -*----------------------------------*\
  =========                 |
  \\      /  F ield         | OpenFOAM: The Open Source CFD Toolbox
   \\    /   O peration     | Website:  https://openfoam.org
    \\  /    A nd           | Version:  8
     \\/     M anipulation  |
\*---------------------------------------------------------------------------*/
FoamFile
{
    version     2.0;
    format      ascii;
    class       volScalarField;
    location    "1";
    object      nuTilda;
}
// * * * * * * * * * * * * * * * * * * * * * * * * * * * * * * * * * * * * * //

dimensions      [0 2 -3 0 0 0 0];

internalField   uniform 14.855;

boundaryField
{
    bottomWall
    {
        type            epsilonWallFunction;
        value           uniform 14.855;
    }
    topWall
    {
        type            epsilonWallFunction;
        value           uniform 14.855;
    }
    sides1_half0
    {
        type            empty;
    }
    sides2_half0
    {
        type            empty;
    }
    inout1_half0
    {
        type            empty;
    }
    inout2_half0
    {
        type            empty;
    }
    sides2_half1
    {
        type            empty;
    }
    sides1_half1
    {
        type            empty;
    }
    inout1_half1
    {
        type            empty;
    }
    inout2_half1
    {
        type            empty;
    }
}


// ************************************************************************* //
