/*--------------------------------*- C++ -*----------------------------------*\
| =========                 |                                                 |
| \\      /  F ield         | OpenFOAM: The Open Source CFD Toolbox           |
|  \\    /   O peration     | Version:  v2306                                 |
|   \\  /    A nd           | Website:  www.openfoam.com                      |
|    \\/     M anipulation  |                                                 |
\*---------------------------------------------------------------------------*/
FoamFile
{
    version     2.0;
    format      ascii;
    class       dictionary;
    object      topoSetDict;
}
// * * * * * * * * * * * * * * * * * * * * * * * * * * * * * * * * * * * * * //

actions
(
    {
        name    clippingCells0.txt;
        type    cellSet;
        action  new;
        source  boxToCell;
        sourceInfo
        {
            boxes
            (
                (1.8841 -0.1473 0.9355)(2.1841 0.1527 1.2355)
            );
        }
    }

    {
        name    clippingCells1.txt;
        type    cellSet;
        action  new;
        source  boxToCell;
        sourceInfo
        {
            boxes
            (
                (1.8841 -0.1473 1.2544)(2.1841 0.1527 1.5544)
            );
        }
    }

    {
        name    clippingCells2.txt;
        type    cellSet;
        action  new;
        source  boxToCell;
        sourceInfo
        {
            boxes
            (
                (1.8841 -0.1473 1.5611)(2.1841 0.1527 1.8611)
            );
        }
    }

    {
        name    clippingCells3.txt;
        type    cellSet;
        action  new;
        source  boxToCell;
        sourceInfo
        {
            boxes
            (
                (1.8841 -0.1473 1.8800)(2.1841 0.1527 2.1800)
            );
        }
    }

    {
        name    clippingCells4.txt;
        type    cellSet;
        action  new;
        source  boxToCell;
        sourceInfo
        {
            boxes
            (
                (1.8841 -0.1473 2.1989)(2.1841 0.1527 2.4989)
            );
        }
    }

    {
        name    clippingCells5.txt;
        type    cellSet;
        action  new;
        source  boxToCell;
        sourceInfo
        {
            boxes
            (
                (2.1970 -0.1473 0.9355)(2.4970 0.1527 1.2355)
            );
        }
    }

    {
        name    clippingCells6.txt;
        type    cellSet;
        action  new;
        source  boxToCell;
        sourceInfo
        {
            boxes
            (
                (2.1970 -0.1473 1.2544)(2.4970 0.1527 1.5544)
            );
        }
    }

    {
        name    clippingCells7.txt;
        type    cellSet;
        action  new;
        source  boxToCell;
        sourceInfo
        {
            boxes
            (
                (2.1970 -0.1473 1.5611)(2.4970 0.1527 1.8611)
            );
        }
    }

    {
        name    clippingCells8.txt;
        type    cellSet;
        action  new;
        source  boxToCell;
        sourceInfo
        {
            boxes
            (
                (2.1970 -0.1473 1.8800)(2.4970 0.1527 2.1800)
            );
        }
    }

    {
        name    clippingCells9.txt;
        type    cellSet;
        action  new;
        source  boxToCell;
        sourceInfo
        {
            boxes
            (
                (2.1970 -0.1473 2.1989)(2.4970 0.1527 2.4989)
            );
        }
    }

    {
        name    clippingCells10.txt;
        type    cellSet;
        action  new;
        source  boxToCell;
        sourceInfo
        {
            boxes
            (
                (2.5100 -0.1473 0.9355)(2.8100 0.1527 1.2355)
            );
        }
    }

    {
        name    clippingCells11.txt;
        type    cellSet;
        action  new;
        source  boxToCell;
        sourceInfo
        {
            boxes
            (
                (2.5100 -0.1473 1.2544)(2.8100 0.1527 1.5544)
            );
        }
    }

    {
        name    clippingCells12.txt;
        type    cellSet;
        action  new;
        source  boxToCell;
        sourceInfo
        {
            boxes
            (
                (2.5100 -0.1473 1.5611)(2.8100 0.1527 1.8611)
            );
        }
    }

    {
        name    clippingCells13.txt;
        type    cellSet;
        action  new;
        source  boxToCell;
        sourceInfo
        {
            boxes
            (
                (2.5100 -0.1473 1.8800)(2.8100 0.1527 2.1800)
            );
        }
    }

    {
        name    clippingCells14.txt;
        type    cellSet;
        action  new;
        source  boxToCell;
        sourceInfo
        {
            boxes
            (
                (2.5100 -0.1473 2.1989)(2.8100 0.1527 2.4989)
            );
        }
    }

    {
        name    clippingCells15.txt;
        type    cellSet;
        action  new;
        source  boxToCell;
        sourceInfo
        {
            boxes
            (
                (2.8229 -0.1473 0.9355)(3.1229 0.1527 1.2355)
            );
        }
    }

    {
        name    clippingCells16.txt;
        type    cellSet;
        action  new;
        source  boxToCell;
        sourceInfo
        {
            boxes
            (
                (2.8229 -0.1473 1.2544)(3.1229 0.1527 1.5544)
            );
        }
    }

    {
        name    clippingCells17.txt;
        type    cellSet;
        action  new;
        source  boxToCell;
        sourceInfo
        {
            boxes
            (
                (2.8229 -0.1473 1.5611)(3.1229 0.1527 1.8611)
            );
        }
    }

    {
        name    clippingCells18.txt;
        type    cellSet;
        action  new;
        source  boxToCell;
        sourceInfo
        {
            boxes
            (
                (2.8229 -0.1473 1.8800)(3.1229 0.1527 2.1800)
            );
        }
    }

    {
        name    clippingCells19.txt;
        type    cellSet;
        action  new;
        source  boxToCell;
        sourceInfo
        {
            boxes
            (
                (2.8229 -0.1473 2.1989)(3.1229 0.1527 2.4989)
            );
        }
    }

    {
        name    clippingCells20.txt;
        type    cellSet;
        action  new;
        source  boxToCell;
        sourceInfo
        {
            boxes
            (
                (3.1359 -0.1473 0.9355)(3.4359 0.1527 1.2355)
            );
        }
    }

    {
        name    clippingCells21.txt;
        type    cellSet;
        action  new;
        source  boxToCell;
        sourceInfo
        {
            boxes
            (
                (3.1359 -0.1473 1.2544)(3.4359 0.1527 1.5544)
            );
        }
    }

    {
        name    clippingCells22.txt;
        type    cellSet;
        action  new;
        source  boxToCell;
        sourceInfo
        {
            boxes
            (
                (3.1359 -0.1473 1.5611)(3.4359 0.1527 1.8611)
            );
        }
    }

    {
        name    clippingCells23.txt;
        type    cellSet;
        action  new;
        source  boxToCell;
        sourceInfo
        {
            boxes
            (
                (3.1359 -0.1473 1.8800)(3.4359 0.1527 2.1800)
            );
        }
    }

    {
        name    clippingCells24.txt;
        type    cellSet;
        action  new;
        source  boxToCell;
        sourceInfo
        {
            boxes
            (
                (3.1359 -0.1473 2.1989)(3.4359 0.1527 2.4989)
            );
        }
    }

    {
        name    clippingCells25.txt;
        type    cellSet;
        action  new;
        source  boxToCell;
        sourceInfo
        {
            boxes
            (
                (3.4488 -0.1473 0.9355)(3.7488 0.1527 1.2355)
            );
        }
    }

    {
        name    clippingCells26.txt;
        type    cellSet;
        action  new;
        source  boxToCell;
        sourceInfo
        {
            boxes
            (
                (3.4488 -0.1473 1.2544)(3.7488 0.1527 1.5544)
            );
        }
    }

    {
        name    clippingCells27.txt;
        type    cellSet;
        action  new;
        source  boxToCell;
        sourceInfo
        {
            boxes
            (
                (3.4488 -0.1473 1.5611)(3.7488 0.1527 1.8611)
            );
        }
    }

    {
        name    clippingCells28.txt;
        type    cellSet;
        action  new;
        source  boxToCell;
        sourceInfo
        {
            boxes
            (
                (3.4488 -0.1473 1.8800)(3.7488 0.1527 2.1800)
            );
        }
    }

    {
        name    clippingCells29.txt;
        type    cellSet;
        action  new;
        source  boxToCell;
        sourceInfo
        {
            boxes
            (
                (3.4488 -0.1473 2.1989)(3.7488 0.1527 2.4989)
            );
        }
    }

    {
        name    clippingCells30.txt;
        type    cellSet;
        action  new;
        source  boxToCell;
        sourceInfo
        {
            boxes
            (
                (3.7617 -0.1473 0.9355)(4.0617 0.1527 1.2355)
            );
        }
    }

    {
        name    clippingCells31.txt;
        type    cellSet;
        action  new;
        source  boxToCell;
        sourceInfo
        {
            boxes
            (
                (3.7617 -0.1473 1.2544)(4.0617 0.1527 1.5544)
            );
        }
    }

    {
        name    clippingCells32.txt;
        type    cellSet;
        action  new;
        source  boxToCell;
        sourceInfo
        {
            boxes
            (
                (3.7617 -0.1473 1.5611)(4.0617 0.1527 1.8611)
            );
        }
    }

    {
        name    clippingCells33.txt;
        type    cellSet;
        action  new;
        source  boxToCell;
        sourceInfo
        {
            boxes
            (
                (3.7617 -0.1473 1.8800)(4.0617 0.1527 2.1800)
            );
        }
    }

    {
        name    clippingCells34.txt;
        type    cellSet;
        action  new;
        source  boxToCell;
        sourceInfo
        {
            boxes
            (
                (3.7617 -0.1473 2.1989)(4.0617 0.1527 2.4989)
            );
        }
    }

    {
        name    clippingCells35.txt;
        type    cellSet;
        action  new;
        source  boxToCell;
        sourceInfo
        {
            boxes
            (
                (4.0747 -0.1473 0.9355)(4.3747 0.1527 1.2355)
            );
        }
    }

    {
        name    clippingCells36.txt;
        type    cellSet;
        action  new;
        source  boxToCell;
        sourceInfo
        {
            boxes
            (
                (4.0747 -0.1473 1.2544)(4.3747 0.1527 1.5544)
            );
        }
    }

    {
        name    clippingCells37.txt;
        type    cellSet;
        action  new;
        source  boxToCell;
        sourceInfo
        {
            boxes
            (
                (4.0747 -0.1473 1.5611)(4.3747 0.1527 1.8611)
            );
        }
    }

    {
        name    clippingCells38.txt;
        type    cellSet;
        action  new;
        source  boxToCell;
        sourceInfo
        {
            boxes
            (
                (4.0747 -0.1473 1.8800)(4.3747 0.1527 2.1800)
            );
        }
    }

    {
        name    clippingCells39.txt;
        type    cellSet;
        action  new;
        source  boxToCell;
        sourceInfo
        {
            boxes
            (
                (4.0747 -0.1473 2.1989)(4.3747 0.1527 2.4989)
            );
        }
    }

    {
        name    clippingCells40.txt;
        type    cellSet;
        action  new;
        source  boxToCell;
        sourceInfo
        {
            boxes
            (
                (4.3876 -0.1473 0.9355)(4.6876 0.1527 1.2355)
            );
        }
    }

    {
        name    clippingCells41.txt;
        type    cellSet;
        action  new;
        source  boxToCell;
        sourceInfo
        {
            boxes
            (
                (4.3876 -0.1473 1.2544)(4.6876 0.1527 1.5544)
            );
        }
    }

    {
        name    clippingCells42.txt;
        type    cellSet;
        action  new;
        source  boxToCell;
        sourceInfo
        {
            boxes
            (
                (4.3876 -0.1473 1.5611)(4.6876 0.1527 1.8611)
            );
        }
    }

    {
        name    clippingCells43.txt;
        type    cellSet;
        action  new;
        source  boxToCell;
        sourceInfo
        {
            boxes
            (
                (4.3876 -0.1473 1.8800)(4.6876 0.1527 2.1800)
            );
        }
    }

    {
        name    clippingCells44.txt;
        type    cellSet;
        action  new;
        source  boxToCell;
        sourceInfo
        {
            boxes
            (
                (4.3876 -0.1473 2.1989)(4.6876 0.1527 2.4989)
            );
        }
    }

    {
        name    clippingCells45.txt;
        type    cellSet;
        action  new;
        source  boxToCell;
        sourceInfo
        {
            boxes
            (
                (4.7006 -0.1473 0.9355)(5.0006 0.1527 1.2355)
            );
        }
    }

    {
        name    clippingCells46.txt;
        type    cellSet;
        action  new;
        source  boxToCell;
        sourceInfo
        {
            boxes
            (
                (4.7006 -0.1473 1.2544)(5.0006 0.1527 1.5544)
            );
        }
    }

    {
        name    clippingCells47.txt;
        type    cellSet;
        action  new;
        source  boxToCell;
        sourceInfo
        {
            boxes
            (
                (4.7006 -0.1473 1.5611)(5.0006 0.1527 1.8611)
            );
        }
    }

    {
        name    clippingCells48.txt;
        type    cellSet;
        action  new;
        source  boxToCell;
        sourceInfo
        {
            boxes
            (
                (4.7006 -0.1473 1.8800)(5.0006 0.1527 2.1800)
            );
        }
    }

    {
        name    clippingCells49.txt;
        type    cellSet;
        action  new;
        source  boxToCell;
        sourceInfo
        {
            boxes
            (
                (4.7006 -0.1473 2.1989)(5.0006 0.1527 2.4989)
            );
        }
    }

    {
        name    clippingCells50.txt;
        type    cellSet;
        action  new;
        source  boxToCell;
        sourceInfo
        {
            boxes
            (
                (5.0319 -0.1473 0.9355)(5.3319 0.1527 1.2355)
            );
        }
    }

    {
        name    clippingCells51.txt;
        type    cellSet;
        action  new;
        source  boxToCell;
        sourceInfo
        {
            boxes
            (
                (5.0319 -0.1473 1.2544)(5.3319 0.1527 1.5544)
            );
        }
    }

    {
        name    clippingCells52.txt;
        type    cellSet;
        action  new;
        source  boxToCell;
        sourceInfo
        {
            boxes
            (
                (5.0319 -0.1473 1.5611)(5.3319 0.1527 1.8611)
            );
        }
    }

    {
        name    clippingCells53.txt;
        type    cellSet;
        action  new;
        source  boxToCell;
        sourceInfo
        {
            boxes
            (
                (5.0319 -0.1473 1.8800)(5.3319 0.1527 2.1800)
            );
        }
    }

    {
        name    clippingCells54.txt;
        type    cellSet;
        action  new;
        source  boxToCell;
        sourceInfo
        {
            boxes
            (
                (5.0319 -0.1473 2.1989)(5.3319 0.1527 2.4989)
            );
        }
    }

    {
        name    clippingCells55.txt;
        type    cellSet;
        action  new;
        source  boxToCell;
        sourceInfo
        {
            boxes
            (
                (5.3448 -0.1473 0.9355)(5.6448 0.1527 1.2355)
            );
        }
    }

    {
        name    clippingCells56.txt;
        type    cellSet;
        action  new;
        source  boxToCell;
        sourceInfo
        {
            boxes
            (
                (5.3448 -0.1473 1.2544)(5.6448 0.1527 1.5544)
            );
        }
    }

    {
        name    clippingCells57.txt;
        type    cellSet;
        action  new;
        source  boxToCell;
        sourceInfo
        {
            boxes
            (
                (5.3448 -0.1473 1.5611)(5.6448 0.1527 1.8611)
            );
        }
    }

    {
        name    clippingCells58.txt;
        type    cellSet;
        action  new;
        source  boxToCell;
        sourceInfo
        {
            boxes
            (
                (5.3448 -0.1473 1.8800)(5.6448 0.1527 2.1800)
            );
        }
    }

    {
        name    clippingCells59.txt;
        type    cellSet;
        action  new;
        source  boxToCell;
        sourceInfo
        {
            boxes
            (
                (5.3448 -0.1473 2.1989)(5.6448 0.1527 2.4989)
            );
        }
    }

    {
        name    clippingCells60.txt;
        type    cellSet;
        action  new;
        source  boxToCell;
        sourceInfo
        {
            boxes
            (
                (5.6578 -0.1473 0.9355)(5.9578 0.1527 1.2355)
            );
        }
    }

    {
        name    clippingCells61.txt;
        type    cellSet;
        action  new;
        source  boxToCell;
        sourceInfo
        {
            boxes
            (
                (5.6578 -0.1473 1.2544)(5.9578 0.1527 1.5544)
            );
        }
    }

    {
        name    clippingCells62.txt;
        type    cellSet;
        action  new;
        source  boxToCell;
        sourceInfo
        {
            boxes
            (
                (5.6578 -0.1473 1.5611)(5.9578 0.1527 1.8611)
            );
        }
    }

    {
        name    clippingCells63.txt;
        type    cellSet;
        action  new;
        source  boxToCell;
        sourceInfo
        {
            boxes
            (
                (5.6578 -0.1473 1.8800)(5.9578 0.1527 2.1800)
            );
        }
    }

    {
        name    clippingCells64.txt;
        type    cellSet;
        action  new;
        source  boxToCell;
        sourceInfo
        {
            boxes
            (
                (5.6578 -0.1473 2.1989)(5.9578 0.1527 2.4989)
            );
        }
    }

    {
        name    clippingCells65.txt;
        type    cellSet;
        action  new;
        source  boxToCell;
        sourceInfo
        {
            boxes
            (
                (5.9707 -0.1473 0.9355)(6.2707 0.1527 1.2355)
            );
        }
    }

    {
        name    clippingCells66.txt;
        type    cellSet;
        action  new;
        source  boxToCell;
        sourceInfo
        {
            boxes
            (
                (5.9707 -0.1473 1.2544)(6.2707 0.1527 1.5544)
            );
        }
    }

    {
        name    clippingCells67.txt;
        type    cellSet;
        action  new;
        source  boxToCell;
        sourceInfo
        {
            boxes
            (
                (5.9707 -0.1473 1.5611)(6.2707 0.1527 1.8611)
            );
        }
    }

    {
        name    clippingCells68.txt;
        type    cellSet;
        action  new;
        source  boxToCell;
        sourceInfo
        {
            boxes
            (
                (5.9707 -0.1473 1.8800)(6.2707 0.1527 2.1800)
            );
        }
    }

    {
        name    clippingCells69.txt;
        type    cellSet;
        action  new;
        source  boxToCell;
        sourceInfo
        {
            boxes
            (
                (5.9707 -0.1473 2.1989)(6.2707 0.1527 2.4989)
            );
        }
    }

    {
        name    clippingCells70.txt;
        type    cellSet;
        action  new;
        source  boxToCell;
        sourceInfo
        {
            boxes
            (
                (6.2837 -0.1473 0.9355)(6.5837 0.1527 1.2355)
            );
        }
    }

    {
        name    clippingCells71.txt;
        type    cellSet;
        action  new;
        source  boxToCell;
        sourceInfo
        {
            boxes
            (
                (6.2837 -0.1473 1.2544)(6.5837 0.1527 1.5544)
            );
        }
    }

    {
        name    clippingCells72.txt;
        type    cellSet;
        action  new;
        source  boxToCell;
        sourceInfo
        {
            boxes
            (
                (6.2837 -0.1473 1.5611)(6.5837 0.1527 1.8611)
            );
        }
    }

    {
        name    clippingCells73.txt;
        type    cellSet;
        action  new;
        source  boxToCell;
        sourceInfo
        {
            boxes
            (
                (6.2837 -0.1473 1.8800)(6.5837 0.1527 2.1800)
            );
        }
    }

    {
        name    clippingCells74.txt;
        type    cellSet;
        action  new;
        source  boxToCell;
        sourceInfo
        {
            boxes
            (
                (6.2837 -0.1473 2.1989)(6.5837 0.1527 2.4989)
            );
        }
    }

    {
        name    clippingCells75.txt;
        type    cellSet;
        action  new;
        source  boxToCell;
        sourceInfo
        {
            boxes
            (
                (6.5966 -0.1473 0.9355)(6.8966 0.1527 1.2355)
            );
        }
    }

    {
        name    clippingCells76.txt;
        type    cellSet;
        action  new;
        source  boxToCell;
        sourceInfo
        {
            boxes
            (
                (6.5966 -0.1473 1.2544)(6.8966 0.1527 1.5544)
            );
        }
    }

    {
        name    clippingCells77.txt;
        type    cellSet;
        action  new;
        source  boxToCell;
        sourceInfo
        {
            boxes
            (
                (6.5966 -0.1473 1.5611)(6.8966 0.1527 1.8611)
            );
        }
    }

    {
        name    clippingCells78.txt;
        type    cellSet;
        action  new;
        source  boxToCell;
        sourceInfo
        {
            boxes
            (
                (6.5966 -0.1473 1.8800)(6.8966 0.1527 2.1800)
            );
        }
    }

    {
        name    clippingCells79.txt;
        type    cellSet;
        action  new;
        source  boxToCell;
        sourceInfo
        {
            boxes
            (
                (6.5966 -0.1473 2.1989)(6.8966 0.1527 2.4989)
            );
        }
    }

    {
        name    clippingCells80.txt;
        type    cellSet;
        action  new;
        source  boxToCell;
        sourceInfo
        {
            boxes
            (
                (6.9095 -0.1473 0.9355)(7.2095 0.1527 1.2355)
            );
        }
    }

    {
        name    clippingCells81.txt;
        type    cellSet;
        action  new;
        source  boxToCell;
        sourceInfo
        {
            boxes
            (
                (6.9095 -0.1473 1.2544)(7.2095 0.1527 1.5544)
            );
        }
    }

    {
        name    clippingCells82.txt;
        type    cellSet;
        action  new;
        source  boxToCell;
        sourceInfo
        {
            boxes
            (
                (6.9095 -0.1473 1.5611)(7.2095 0.1527 1.8611)
            );
        }
    }

    {
        name    clippingCells83.txt;
        type    cellSet;
        action  new;
        source  boxToCell;
        sourceInfo
        {
            boxes
            (
                (6.9095 -0.1473 1.8800)(7.2095 0.1527 2.1800)
            );
        }
    }

    {
        name    clippingCells84.txt;
        type    cellSet;
        action  new;
        source  boxToCell;
        sourceInfo
        {
            boxes
            (
                (6.9095 -0.1473 2.1989)(7.2095 0.1527 2.4989)
            );
        }
    }

    {
        name    clippingCells85.txt;
        type    cellSet;
        action  new;
        source  boxToCell;
        sourceInfo
        {
            boxes
            (
                (7.2225 -0.1473 0.9355)(7.5225 0.1527 1.2355)
            );
        }
    }

    {
        name    clippingCells86.txt;
        type    cellSet;
        action  new;
        source  boxToCell;
        sourceInfo
        {
            boxes
            (
                (7.2225 -0.1473 1.2544)(7.5225 0.1527 1.5544)
            );
        }
    }

    {
        name    clippingCells87.txt;
        type    cellSet;
        action  new;
        source  boxToCell;
        sourceInfo
        {
            boxes
            (
                (7.2225 -0.1473 1.5611)(7.5225 0.1527 1.8611)
            );
        }
    }

    {
        name    clippingCells88.txt;
        type    cellSet;
        action  new;
        source  boxToCell;
        sourceInfo
        {
            boxes
            (
                (7.2225 -0.1473 1.8800)(7.5225 0.1527 2.1800)
            );
        }
    }

    {
        name    clippingCells89.txt;
        type    cellSet;
        action  new;
        source  boxToCell;
        sourceInfo
        {
            boxes
            (
                (7.2225 -0.1473 2.1989)(7.5225 0.1527 2.4989)
            );
        }
    }

    {
        name    clippingCells90.txt;
        type    cellSet;
        action  new;
        source  boxToCell;
        sourceInfo
        {
            boxes
            (
                (1.7368 -0.0561 1.6469)(2.0368 0.2439 1.9469)
            );
        }
    }

    {
        name    clippingCells91.txt;
        type    cellSet;
        action  new;
        source  boxToCell;
        sourceInfo
        {
            boxes
            (
                (4.2956 -0.0887 1.5856)(4.5956 0.2113 1.8856)
            );
        }
    }

    {
        name    clippingCells92.txt;
        type    cellSet;
        action  new;
        source  boxToCell;
        sourceInfo
        {
            boxes
            (
                (3.6145 -0.1397 0.9478)(3.9145 0.1603 1.2478)
            );
        }
    }

    {
        name    clippingCells93.txt;
        type    cellSet;
        action  new;
        source  boxToCell;
        sourceInfo
        {
            boxes
            (
                (4.4981 -0.0973 1.8800)(4.7981 0.2027 2.1800)
            );
        }
    }

    {
        name    clippingCells94.txt;
        type    cellSet;
        action  new;
        source  boxToCell;
        sourceInfo
        {
            boxes
            (
                (4.2219 -0.1156 2.1253)(4.5219 0.1844 2.4253)
            );
        }
    }

    {
        name    clippingCells95.txt;
        type    cellSet;
        action  new;
        source  boxToCell;
        sourceInfo
        {
            boxes
            (
                (2.4732 -0.0827 1.0091)(2.7732 0.2173 1.3091)
            );
        }
    }

    {
        name    clippingCells96.txt;
        type    cellSet;
        action  new;
        source  boxToCell;
        sourceInfo
        {
            boxes
            (
                (2.4548 -0.1001 0.8129)(2.7548 0.1999 1.1129)
            );
        }
    }

    {
        name    clippingCells97.txt;
        type    cellSet;
        action  new;
        source  boxToCell;
        sourceInfo
        {
            boxes
            (
                (5.9155 -0.1417 0.8619)(6.2155 0.1583 1.1619)
            );
        }
    }

    {
        name    clippingCells98.txt;
        type    cellSet;
        action  new;
        source  boxToCell;
        sourceInfo
        {
            boxes
            (
                (5.4737 -0.1001 2.1007)(5.7737 0.1999 2.4007)
            );
        }
    }

    {
        name    clippingCells99.txt;
        type    cellSet;
        action  new;
        source  boxToCell;
        sourceInfo
        {
            boxes
            (
                (6.6334 -0.0887 0.6779)(6.9334 0.2113 0.9779)
            );
        }
    }

    {
        name    clippingCells100.txt;
        type    cellSet;
        action  new;
        source  boxToCell;
        sourceInfo
        {
            boxes
            (
                (4.7742 -0.0764 1.3157)(5.0742 0.2236 1.6157)
            );
        }
    }

    {
        name    clippingCells101.txt;
        type    cellSet;
        action  new;
        source  boxToCell;
        sourceInfo
        {
            boxes
            (
                (4.0010 -0.0596 1.2789)(4.3010 0.2404 1.5789)
            );
        }
    }

    {
        name    clippingCells102.txt;
        type    cellSet;
        action  new;
        source  boxToCell;
        sourceInfo
        {
            boxes
            (
                (2.9150 -0.1336 1.4997)(3.2150 0.1664 1.7997)
            );
        }
    }

    {
        name    clippingCells103.txt;
        type    cellSet;
        action  new;
        source  boxToCell;
        sourceInfo
        {
            boxes
            (
                (4.6085 -0.0561 1.0582)(4.9085 0.2439 1.3582)
            );
        }
    }

    {
        name    clippingCells104.txt;
        type    cellSet;
        action  new;
        source  boxToCell;
        sourceInfo
        {
            boxes
            (
                (5.3448 -0.0732 0.8251)(5.6448 0.2268 1.1251)
            );
        }
    }

    {
        name    clippingCells105.txt;
        type    cellSet;
        action  new;
        source  boxToCell;
        sourceInfo
        {
            boxes
            (
                (3.1359 -0.0631 2.0517)(3.4359 0.2369 2.3517)
            );
        }
    }

    {
        name    clippingCells106.txt;
        type    cellSet;
        action  new;
        source  boxToCell;
        sourceInfo
        {
            boxes
            (
                (3.5961 -0.0973 1.5243)(3.8961 0.2027 1.8243)
            );
        }
    }

    {
        name    clippingCells107.txt;
        type    cellSet;
        action  new;
        source  boxToCell;
        sourceInfo
        {
            boxes
            (
                (2.1602 -0.1131 1.9045)(2.4602 0.1869 2.2045)