/*--------------------------------*- C++ -*----------------------------------*\
| =========                 |                                                 |
| \\      /  F ield         | OpenFOAM: The Open Source CFD Toolbox           |
|  \\    /   O peration     | Version:  2212                                  |
|   \\  /    A nd           | Website:  www.openfoam.com                      |
|    \\/     M anipulation  |                                                 |
\*---------------------------------------------------------------------------*/
FoamFile
{
    version     2.0;
    format      ascii;
    arch        "LSB;label=32;scalar=64";
    class       polyBoundaryMesh;
    location    "constant/polyMesh";
    object      boundary;
}
// * * * * * * * * * * * * * * * * * * * * * * * * * * * * * * * * * * * * * //

7
(
    movingWall
    {
        type            wall;
        inGroups        1(wall);
        nFaces          7;
        startFace       76;
    }
    fixedWalls
    {
        type            wall;
        inGroups        1(wall);
        nFaces          0;
        startFace       83;
    }
    frontAndBack
    {
        type            empty;
        inGroups        1(empty);
        nFaces          90;
        startFace       83;
    }
    procBoundary7to3
    {
        type            processor;
        inGroups        1(processor);
        nFaces          1;
        startFace       173;
        matchTolerance  0.0001;
        transform       unknown;
        myProcNo        7;
        neighbProcNo    3;
    }
    procBoundary7to4
    {
        type            processor;
        inGroups        1(processor);
        nFaces          7;
        startFace       174;
        matchTolerance  0.0001;
        transform       unknown;
        myProcNo        7;
        neighbProcNo    4;
    }
    procBoundary7to6
    {
        type            processor;
        inGroups        1(processor);
        nFaces          7;
        startFace       181;
        matchTolerance  0.0001;
        transform       unknown;
        myProcNo        7;
        neighbProcNo    6;
    }
    procBoundary7to8
    {
        type            processor;
        inGroups        1(processor);
        nFaces          6;
        startFace       188;
        matchTolerance  0.0001;
        transform       unknown;
        myProcNo        7;
        neighbProcNo    8;
    }
)

// ************************************************************************* //
