/*--------------------------------*- C++ -*----------------------------------*\
  =========                 |
  \\      /  F ield         | OpenFOAM: The Open Source CFD Toolbox
   \\    /   O peration     | Website:  https://openfoam.org
    \\  /    A nd           | Version:  8
     \\/     M anipulation  |
\*---------------------------------------------------------------------------*/
FoamFile
{
    version     2.0;
    format      ascii;
    class       polyBoundaryMesh;
    location    "constant/polyMesh";
    object      boundary;
}
// * * * * * * * * * * * * * * * * * * * * * * * * * * * * * * * * * * * * * //

10
(
    bottomWall
    {
        type            wall;
        inGroups        List<word> 1(wall);
        nFaces          1;
        startFace       19;
    }
    topWall
    {
        type            wall;
        inGroups        List<word> 1(wall);
        nFaces          1;
        startFace       20;
    }
    sides1_half0
    {
        type            empty;
        inGroups        List<word> 1(empty);
        nFaces          10;
        startFace       21;
    }
    sides1_half1
    {
        type            empty;
        inGroups        List<word> 1(empty);
        nFaces          10;
        startFace       31;
    }
    sides2_half0
    {
        type            empty;
        inGroups        List<word> 1(empty);
        nFaces          10;
        startFace       41;
    }
    sides2_half1
    {
        type            empty;
        inGroups        List<word> 1(empty);
        nFaces          10;
        startFace       51;
    }
    inout1_half0
    {
        type            empty;
        inGroups        List<word> 1(empty);
        nFaces          10;
        startFace       61;
    }
    inout1_half1
    {
        type            empty;
        inGroups        List<word> 1(empty);
        nFaces          10;
        startFace       71;
    }
    inout2_half0
    {
        type            empty;
        inGroups        List<word> 1(empty);
        nFaces          10;
        startFace       81;
    }
    inout2_half1
    {
        type            empty;
        inGroups        List<word> 1(empty);
        nFaces          10;
        startFace       91;
    }
)

// ************************************************************************* //
